/batch
/config,noeldb,1     ! force off writing results to database
*get,_wallstrt,active,,time,wall
! ANSYS input file written by Workbench version 2025 R2
! File used for geometry attach: C:\Users\LENOVO\Downloads\59LRf2Ju\rockerP.igs
/title,wbnew--Static Structural (A5)
! ****** Begin Custom Load Command Snippet ******
/COM, ACT Extensions:
/COM,     LSDYNA, 2025.2
/COM,     5f463412-bd3e-484b-87e7-cbc0a665e474, wbex
/COM,/COM,     ANSYSMotion, 2025.2
/COM,     20180725-3f81-49eb-9f31-41364844c769, wbex
/COM,
! ****** End   Custom Load Command Snippet ******
*DIM,_wb_ProjectScratch_dir,string,248
_wb_ProjectScratch_dir(1) = 'C:\Users\LENOVO\AppData\Local\Temp\WB_LENOVO_27912_2\_ProjectScratch\Scr026D\'
*DIM,_wb_SolverFiles_dir,string,248
_wb_SolverFiles_dir(1) = 'C:\Users\LENOVO\AppData\Local\Temp\WB_LENOVO_27912_2\wbnew_files\dp0\SYS\MECH\'
*DIM,_wb_userfiles_dir,string,248
_wb_userfiles_dir(1) = 'C:\Users\LENOVO\AppData\Local\Temp\WB_LENOVO_27912_2\wbnew_files\user_files\'
/com,--- Data in consistent MKS units. See Solving Units in the help system for more information.
/units,MKS
/nopr
/wb,file,start              !  signify a WB generated input file
/prep7
! Turn off shape checking because checks already performed inside WB mesher.
! See help system for more information.
SHPP,OFF,,NOWARN
/nolist
etcon,set             ! allow ANSYS to choose best KEYOP's for 180x elements, resets any applicable keyopt to MAPDL defaults
/com,*********** Send User Defined Coordinate System(s) ***********
csys,0
/com,*********** Nodes for the whole assembly ***********
nblock,3,,3186
(1i9,3e20.9e3)
        1     1.247180987E-01    -5.852181097E-02     0.000000000E+00
        2     1.239860479E-01    -5.578976016E-02     0.000000000E+00
        3     1.249178690E-01    -5.700418109E-02     0.000000000E+00
        4     1.207180987E-01    -6.545001420E-02     0.000000000E+00
        5     1.179860479E-01    -6.618206500E-02     0.000000000E+00
        6     1.195036778E-01    -6.638183528E-02     0.000000000E+00
        7     1.857705918E-02    -8.788258605E-03     0.000000000E+00
        8     2.962250237E-02    -1.516534820E-02     0.000000000E+00
        9     4.066794556E-02    -2.154243780E-02     0.000000000E+00
       10     5.171338875E-02    -2.791952740E-02     0.000000000E+00
       11     6.275883194E-02    -3.429661700E-02     0.000000000E+00
       12     7.380427513E-02    -4.067370660E-02     0.000000000E+00
       13     8.484971832E-02    -4.705079620E-02     0.000000000E+00
       14     9.589516151E-02    -5.342788580E-02     0.000000000E+00
       15     1.069406047E-01    -5.980497540E-02     0.000000000E+00
       16    -2.442136428E-02    -8.788258605E-03     0.000000000E+00
       17    -1.367175842E-02    -8.788258605E-03     0.000000000E+00
       18    -2.922152549E-03    -8.788258605E-03     0.000000000E+00
       19     7.827453316E-03    -8.788258605E-03     0.000000000E+00
       20    -1.143011652E-01    -7.172277274E-02     0.000000000E+00
! ... 2878 like lines cut
/wb,elem,start            !  set before creation of elements
/com,*********** Elements for Body 1 'rockerP|Solid' ***********
et,1,187
MAT,1 $ TYPE,1 $ REAL,1 $ SECNUM,1 $ ESYS,0
eblock,11,COMPACT,,1392
(11i9)
        1       93      214      275      274     1228     2058     1230     1229     2057     2394
        2       93      275      214       95     1230     2058     1228     1225     1248     1247
        3        1      270        3      162      507      524      501      505     1749      523
        4        2      213       64      162      516     1034      510      514     1746     1032
        5        1      270      162      269      507     1749      505      506     2374     1748
        6       65      207       66      285     1038     1042     1035     1040     2040     1045
        7        4      267      268      285      528     2367      529      531     2370     2373
        8       66      285      207      208     1045     2040     1042     1043     2043     2039
        9        7      153      485      394      544     1682      554      550     1677     2770
       10       44      332      482      163      881     2588      882      879     1755     1758
       11        7      435      485      153      553     2849      554      544     1680     1682
       12       81      485      224      443     1135     2119     1127     1133     2859     2115
       13       96      482      357      215     1252     2661     1250     1249     2068     2064
       14       44      163      482      322      879     1758      882      880     1754     2556
       15      153      485      484      435     1682     2893     1681     1680     2849     2848
       16        7      485      435      297      554     2849      553      547     2458     2457
       17       81      485      452      224     1135     2867     1134     1127     2119     2116
       18      224      484      485      452     2118     2893     2119     2116     2866     2867
       19       96      482      215      358     1252     2068     1249     1251     2665     2065
       20      435      485      484      452     2849     2893     2848     2847     2867     2866
! ... 1373 like lines cut
secnum,1    ! reset the section ID to default
! Material Id = {DA39F763-5E01-40DE-B0A4-900BE488331D}
/wb,elem,end               !  done creating elements
toffst,273.15,      ! Temperature offset from absolute zero
/com,*********** Set Reference Temperature ***********
tref,30.
/wb,mat,start              !  starting to send materials
/com,*********** Send Materials ***********
Temperature = 'TEMP' ! Temperature
MP,DENS,1,7850,	! kg m^-3
MP,ALPX,1,1.2e-05,	! C^-1
MP,C,1,434,	! J kg^-1 C^-1
MP,KXX,1,60.5,	! W m^-1 C^-1
MP,RSVX,1,1.7e-07,	! kg m^3 A^-2 s^-3
MP,EX,1,200000000000,	! Pa
MP,NUXY,1,0.3,
MP,MURX,1,10000,
MP,UVID,1,355f9c13-625a-4db7-9f12-2068a1216a35
MP,UMID,1,59002a79-71c2-428e-906b-55d7dbee100e

/wb,mat,end                !  done sending materials
!************************* Model Summary ********************
!rockerP|Solid,	Structural Steel,	matid,	1
!************************* End Model Summary ********************
! get the diagonal of the bounding box. Needed later for other things
*get,_xmin,node,,mnloc,x
*get,_ymin,node,,mnloc,y
*get,_zmin,node,,mnloc,z
*get,_xmax,node,,mxloc,x
*get,_ymax,node,,mxloc,y
*get,_zmax,node,,mxloc,z
_ASMDIAG=(_xmax-_xmin)*(_xmax-_xmin)+(_ymax-_ymin)*(_ymax-_ymin)+(_zmax-_zmin)*(_zmax-_zmin)
_ASMDIAG=SQRT(_ASMDIAG)
/wb,contact,start          !  starting to send contact
/wb,contact,end            !  done creating contacts
/golist
/wb,load,start             !  starting to send loads
/com,*********** Fixed Supports ***********
CMBLOCK,_FIXEDSU,NODE,       28
(8i10)
        29        31        72        73        76        77        91        93
       267      -270       273       275       309       334       335       338
       765       766       775      1071      1074      1075      1092      1096
      1215      2369      2372      2376
cmsel,s,_FIXEDSU
d,all,all
nsel,all
/com,*********** Define Force Using Surface Effect Elements ***********
local,12,0,0.,0.,0.,0.,0.,0.
csys,0
et,2,154
MAT,2 $ TYPE,2 $ REAL,2 $ SECNUM,2 $ ESYS,12
eblock,11,COMPACT,,18
(11i9)
     2395      196      450      234      234     2009     2191      234     2003
     2396      197      434      451      451     2015     2845      451     2017
     2397      196      433      450      450     2007     2843      450     2009
     2398      435      452      484      484     2847     2866      484     2848
     2399      224      484      452      452     2118     2866      452     2116
     2400      234      451      434      434     2192     2845      434     2190
     2401      196      234      434      434     2003     2190      434     2008
     2402      235      452      435      435     2198     2847      435     2196
     2403      197      235      435      435     2011     2196      435     2016
     2404      197      451      235      235     2017     2197      235     2011
     2405      233      450      433      433     2182     2843      433     2180
     2406      432      479      449      449     2841     2861      449     2840
     2407      195      233      433      433     1992     2180      433     1997
     2408      195      449      233      233     1998     2181      233     1992
     2409      153      435      484      484     1680     2848      484     1681
     2410      232      449      479      479     2170     2861      479     2174
     2411      195      432      449      449     1996     2840      449     1998
     2412      186      479      432      432     1933     2841      432     1932
-1
secnum,1    ! reset the section ID to default
esel,s,type,,2
keyop,2,2,1         ! Apply load in local coordinate system
keyop,2,7,1         ! Use original area so load is constant in large deformation
esel,all
/gst,on,on
fini
*get,_numnode,node,0,count
*get,_numelem,elem,0,count
*get, _MAXELEMNUM, elem, 0, NUM, MAX
*get, _MAXNODENUM, node, 0, NUM, MAX
*get, _MAXELEMTYPE, etyp, 0, NUM, MAX
*get, _MAXREALCONST, rcon, 0, NUM, MAX
/go
/wb,load,end               !  done creating loads
/com,--- Number of total nodes = %_numnode%
/com,--- Number of contact elements = 18
/com,--- Number of spring elements = 0
/com,--- Number of bearing elements = 0
/com,--- Number of solid elements = 1392
/com,--- Number of condensed parts = 0
/com,--- Number of total elements = %_numelem%
*get,_wallbsol,active,,time,wall
/com,****************************************************************************
/com,*************************    SOLUTION       ********************************
/com,****************************************************************************
/solu
antype,0                   ! static analysis
_thickRatio=  0     ! Ratio of thick parts in the model
eqsl,sparse,,,,,1
cntr,print,1               ! print out contact info and also make no initial contact an error
cncheck,dmp		!	Enable program controlled contact splitting for distributed memory parallel run
dmpoption,emat,no             ! Don't combine emat file for DANSYS
dmpoption,esav,no             ! Don't combine esav file for DANSYS
nldiag,cont,iter           ! print out contact info each equilibrium iteration
rescontrol,,none                 ! Do not keep any restart files
/com,****************************************************
/com,******************* SOLVE FOR LS 1 OF 1 ****************
esel,s,type,,2
nsle
sfe,all,1,pres,1,0.
sfe,all,2,pres,1,-68836.2768244685
sfe,all,3,pres,1,0.
nsel,all
esel,all
/nopr
/gopr
nsub,1,1,1
time,1.
outres,erase
outres,all,none
outres,nsol,all,
outres,rsol,all
outres,eangl,all
outres,etmp,all
outres,veng,all
outres,strs,all,
outres,epel,all,
outres,eppl,all,
outres,cont,all,
! *********** WB SOLVE COMMAND ***********
! check interactive state
*get,ANSINTER_,active,,int
*if,ANSINTER_,ne,0,then
/eof
*endif
solve
/com *************** Write FE CONNECTORS ********* 
CEWRITE,file,ce,,INTE
/com,****************************************************
/com,*************** FINISHED SOLVE FOR LS 1 *************
*get,_wallasol,active,,time,wall
/nopr
*get,_numnode,node,0,count
*get,_numelem,elem,0,count
*get, _MAXELEMNUM, elem, 0, NUM, MAX
*get, _MAXNODENUM, node, 0, NUM, MAX,,,INTERNAL
*get, _MAXELEMTYPE, etyp, 0, NUM, MAX
*get, _MAXREALCONST, rcon, 0, NUM, MAX
*get,_NSOLTHREADS,active,0,ntfs
*get,_NSOLPROCESSES,active,0,npfs
/gopr
/post1
xmlo,ENCODING,ISO-8859-1
xmlo,parm
/xml,parm,xml
fini
/gopr
*get,_walldone,active,,time,wall
_preptime=(_wallbsol-_wallstrt)*3600
_solvtime=(_wallasol-_wallbsol)*3600
_posttime=(_walldone-_wallasol)*3600
_totaltim=(_walldone-_wallstrt)*3600
*get,_dlbratio,active,0,solu,dlbr
*get,_combtime,active,0,solu,comb
*get,_ssmode,active,0,solu,ssmm
*get,_ndofs,active,0,solu,ndof
*get,_sol_end_time,active,0,set,time
*if,_sol_end_time,eq,1.000000,then
/fclean				!clean distributed files
*endif
/com,--- Total number of nodes = %_numnode%
/com,--- Total number of elements = %_numelem%
/com,--- Element load balance ratio = %_dlbratio%
/com,--- Time to combine distributed files = %_combtime%
/com,--- Sparse memory mode = %_ssmode%
/com,--- Number of DOF = %_ndofs%
/wb,file,end               ! done with WB generated input
